19

  C       -4.3665960        0.5530880       -0.0000050
  H       -4.4079170        1.6435260       -0.0000680
  H       -4.7463100        0.0911230       -0.9112030
  H       -4.7462990        0.0912290        0.9112500
  C       -2.5987570       -0.1346880        0.0000250
  O       -2.6727250       -1.3682730        0.0001000
  N       -1.2700260        0.4570930       -0.0000200
  H       -1.1622900        1.4637260       -0.0000850
  C        0.0715070       -0.3926100        0.0000230
  H        0.0243060       -1.0354710       -0.8875780
  H        0.0243160       -1.0353640        0.8877020
  C        1.6247670        0.3216200       -0.0000310
  O        1.7004320        1.5510730       -0.0001150
  N        2.7949600       -0.5262910        0.0000200
  H        2.5860090       -1.5190590        0.0000900
  C        4.4761960       -0.3190540       -0.0000060
  H        4.8190920       -0.8028160       -0.9148880
  H        4.6510920        0.7576960       -0.0000530
  H        4.8191050       -0.8027380        0.9149120
