19

  C        3.4155570        0.9176490        0.0000530
  H        3.0054270        1.9336510       -0.0001120
  H        4.0482140        0.7827440        0.8857660
  H        4.0484970        0.7825590       -0.8854320
  C        2.3388070       -0.1548130       -0.0000110
  O        2.6184600       -1.3712440       -0.0000110
  N        1.0501080        0.2746510       -0.0000460
  H        0.7940160        1.2542770       -0.0000070
  C       -0.0503590       -0.6664000       -0.0000260
  H        0.0041400       -1.3198780        0.8844670
  H        0.0040830       -1.3198890       -0.8845170
  C       -1.3622540        0.1213970       -0.0000040
  O       -1.3745030        1.3676230       -0.0000460
  N       -2.4975250       -0.6177940        0.0000320
  H       -2.4384570       -1.6250610        0.0000810
  C       -3.8142090        0.0166150        0.0000300
  H       -4.5818000       -0.7623730       -0.0004930
  H       -3.9347870        0.6487450        0.8880010
  H       -3.9343310        0.6494990       -0.8874590
