19

  C       -4.2342060        0.5613670       -0.0000080
  H       -4.2476630        1.6538730       -0.0000780
  H       -4.6631900        0.1303270       -0.9059680
  H       -4.6631780        0.1304460        0.9060160
  C       -2.5843090       -0.1374500        0.0000250
  O       -2.6458410       -1.3753970        0.0001030
  N       -1.2655480        0.4580870       -0.0000210
  H       -1.1534150        1.4643180       -0.0000870
  C        0.0594630       -0.3941490        0.0000220
  H        0.0105380       -1.0397200       -0.8860840
  H        0.0105480       -1.0396160        0.8862050
  C        1.5919520        0.3179680       -0.0000300
  O        1.6717250        1.5483810       -0.0001110
  N        2.7529040       -0.5326820        0.0000190
  H        2.5408080       -1.5245130        0.0000870
  C        4.4070500       -0.3161390       -0.0000060
  H        4.7642520       -0.7940310       -0.9131150
  H        4.5787770        0.7615850       -0.0000480
  H        4.7642660       -0.7939620        0.9131330
